Version 4
SHEET 1 880 680
WIRE 560 48 400 48
WIRE 208 96 176 96
WIRE 336 96 288 96
WIRE 176 128 176 96
WIRE 0 176 -128 176
WIRE 112 176 80 176
WIRE 400 208 400 144
WIRE -128 224 -128 176
WIRE 560 224 560 48
WIRE -128 352 -128 304
WIRE 176 352 176 224
WIRE 176 352 -128 352
WIRE 208 352 176 352
WIRE 400 352 400 288
WIRE 400 352 208 352
WIRE 560 352 560 304
WIRE 560 352 400 352
WIRE 208 384 208 352
FLAG 208 384 0
SYMBOL npn 112 128 R0
SYMATTR InstName Q1
SYMATTR Value BC550C
SYMBOL pnp 336 144 M180
SYMATTR InstName BC556B
SYMBOL res 304 80 R90
WINDOW 0 0 56 VBottom 2
WINDOW 3 32 56 VTop 2
SYMATTR InstName R1
SYMATTR Value 510
SYMBOL res 96 160 R90
WINDOW 0 0 56 VBottom 2
WINDOW 3 32 56 VTop 2
SYMATTR InstName R2
SYMATTR Value 4700
SYMBOL voltage -128 208 R0
WINDOW 123 0 0 Left 0
WINDOW 39 0 0 Left 0
SYMATTR InstName V1
SYMATTR Value 3.3
SYMBOL voltage 560 208 R0
WINDOW 123 0 0 Left 0
WINDOW 39 0 0 Left 0
SYMATTR InstName V2
SYMATTR Value 5
SYMBOL res 384 192 R0
SYMATTR InstName R3
SYMATTR Value 125
TEXT -162 408 Left 2 !.tran 2
TEXT -96 -56 Left 2 !.lib C:\\Users\\dlago\\Documents\\LTspiceXVII\\lib\\europe.lib
